/batch
/config,noeldb,1     ! force off writing results to database
*get,_wallstrt,active,,time,wall
! ANSYS input file written by Workbench version 2021 R2
! File used for geometry attach: C:\Users\luizg\OneDrive\OneDrive_SYNC\UnB\2021.1\FGA0039-mecanica_de_estruturas_aeroespaciais\exercicio_individual_2_files\dp0\SYS\DM\SYS.agdb
/title,exercicio_individual_2--Static Structural (A5)
! ****** Begin Custom Load Command Snippet ******
/COM, ACT Extensions:
/COM,     LSDYNA, 2021.1
/COM,     5f463412-bd3e-484b-87e7-cbc0a665e474, wbex
/COM,
! ****** End   Custom Load Command Snippet ******
*DIM,_wb_ProjectScratch_dir,string,248
_wb_ProjectScratch_dir(1) = 'C:\Users\luizg\OneDrive\OneDrive_SYNC\UnB\2021.1\FGA0039-mecanica_de_estruturas_aeroespaciais\_ProjectScratch\Scr1511\'
*DIM,_wb_SolverFiles_dir,string,248
_wb_SolverFiles_dir(1) = 'C:\Users\luizg\OneDrive\OneDrive_SYNC\UnB\2021.1\FGA0039-mecanica_de_estruturas_aeroespaciais\exercicio_individual_2_files\dp0\SYS\MECH\'
*DIM,_wb_userfiles_dir,string,248
_wb_userfiles_dir(1) = 'C:\Users\luizg\OneDrive\OneDrive_SYNC\UnB\2021.1\FGA0039-mecanica_de_estruturas_aeroespaciais\exercicio_individual_2_files\user_files\'
/com,--- Data in consistent NMM units. See Solving Units in the help system for more information.
/units,MPA
/nopr
/wb,file,start              !  signify a WB generated input file
/prep7
! Turn off shape checking because checks already performed inside WB mesher.
! See help system for more information.
SHPP,OFF,,NOWARN
/nolist
etcon,set             ! allow ANSYS to choose best KEYOP's for 180x elements, resets any applicable keyopt to MAPDL defaults
/com,*********** Nodes for the whole assembly ***********
nblock,3,,8949
(1i9,3e20.9e3)
        1     5.631757750E+02     0.000000000E+00     5.974762497E+01
        2     5.511878327E+02     0.000000000E+00     5.990176391E+01
        3     5.393137255E+02     0.000000000E+00     6.000000000E+01
        4     5.273529412E+02     0.000000000E+00     6.000000000E+01
        5     5.153921569E+02     0.000000000E+00     6.000000000E+01
        6     5.034313725E+02     0.000000000E+00     6.000000000E+01
        7     4.914705882E+02     0.000000000E+00     6.000000000E+01
        8     4.795098039E+02     0.000000000E+00     6.000000000E+01
        9     4.675490196E+02     0.000000000E+00     6.000000000E+01
       10     4.555882353E+02     0.000000000E+00     6.000000000E+01
       11     4.436274510E+02     0.000000000E+00     6.000000000E+01
       12     4.316666667E+02     0.000000000E+00     6.000000000E+01
       13     4.197058824E+02     0.000000000E+00     6.000000000E+01
       14     4.077450980E+02     0.000000000E+00     6.000000000E+01
       15     3.957843137E+02     0.000000000E+00     6.000000000E+01
       16     3.838235294E+02     0.000000000E+00     6.000000000E+01
       17     3.718627451E+02     0.000000000E+00     6.000000000E+01
       18     3.599019608E+02     0.000000000E+00     6.000000000E+01
       19     3.479411765E+02     0.000000000E+00     6.000000000E+01
       20     3.359803922E+02     0.000000000E+00     6.000000000E+01
! ... 8117 like lines cut
/wb,elem,start            !  set before creation of elements
/com,*********** Elements for Body 1 "Solid" ***********
et,1,186
keyo,1,2,1          ! set full integration on SOLID186
eblock,19,solid,,1109
(19i9)
        1        1        1        1        0        0        0        0       20        0        1      199      341      337      530     1874     1732     1736     1543
     3166     3717     3719     3167     7211     7209     6825     6826     3168     3731     3721     4292
        1        1        1        1        0        0        0        0       20        0        2      198     2368     2367      530     1875     2073     2074     1543
     3164     8136     4293     3161     7497     7693     6828     6827     3162     7695     7697     4292
        1        1        1        1        0        0        0        0       20        0        3      199      530     2367     2366     1874     1543     2074     2075
     3167     4293     8135     3170     6826     6828     7696     7495     3168     4292     7697     7699
        1        1        1        1        0        0        0        0       20        0        4     1033     1035     1034     1036     1040     1038     1039     1037
     5541     5544     5545     5542     5554     5553     5549     5550     5543     5547     5546     5548
        1        1        1        1        0        0        0        0       20        0        5      915      916     1036     1034     1158     1157     1037     1039
     5222     5226     5545     5223     5828     5552     5549     5558     5224     5227     5548     5546
        1        1        1        1        0        0        0        0       20        0        6     1029     1033     1036     1032     1044     1040     1037     1041
     5532     5542     5539     5531     5559     5550     5551     5561     5533     5543     5548     5540
        1        1        1        1        0        0        0        0       20        0        7      916      917     1032     1036     1157     1156     1041     1037
     5225     5229     5539     5226     5826     5563     5551     5552     5227     5230     5540     5548
        1        1        1        1        0        0        0        0       20        0        8      952      953     1035     1033     1121     1120     1038     1040
     5331     5335     5541     5332     5752     5556     5554     5560     5333     5336     5547     5543
        1        1        1        1        0        0        0        0       20        0        9     1030     1034     1035     1031     1043     1039     1038     1042
     5535     5544     5537     5534     5557     5553     5555     5564     5536     5546     5547     5538
        1        1        1        1        0        0        0        0       20        0       10      953      954     1031     1035     1120     1119     1042     1038
     5334     5338     5537     5335     5750     5566     5555     5556     5336     5339     5538     5547
! ... 2199 like lines cut
!Material Id = {33FB3698-4AA6-4BA2-B2FB-27833629E575}
/wb,elem,end               !  done creating elements
/com,*********** Send User Defined Coordinate System(s) ***********
csys,0
toffst,273.15,  ! Temperature offset from absolute zero
/com,*********** Set Reference Temperature ***********
tref,22.
/wb,mat,start              !  starting to send materials
/com,*********** Send Materials ***********
Temperature = 'TEMP' ! Temperature
MP,DENS,1,7.85e-09,	! tonne mm^-3
MP,ALPX,1,1.2e-05,	! C^-1
MP,C,1,434000000,	! mm^2 s^-2 C^-1
MP,KXX,1,60.5,	! tonne mm s^-3 C^-1
MP,RSVX,1,0.00017,	! ohm mm
MP,EX,1,200000,	! tonne s^-2 mm^-1
MP,NUXY,1,0.3,
MP,MURX,1,10000,
MP,UVID,1,a8863a05-6dbc-452f-bf85-cc6d56718fac
MP,UMID,1,59002a79-71c2-428e-906b-55d7dbee100e

/wb,mat,end                !  done sending materials
!************************* Model Summary ********************
!Solid,	Structural Steel,	matid,	1
!************************* End Model Summary ********************
! get the diagonal of the bounding box. Needed later for other things
*get,_xmin,node,,mnloc,x
*get,_ymin,node,,mnloc,y
*get,_zmin,node,,mnloc,z
*get,_xmax,node,,mxloc,x
*get,_ymax,node,,mxloc,y
*get,_zmax,node,,mxloc,z
_ASMDIAG=(_xmax-_xmin)*(_xmax-_xmin)+(_ymax-_ymin)*(_ymax-_ymin)+(_zmax-_zmin)*(_zmax-_zmin)
_ASMDIAG=SQRT(_ASMDIAG)
/wb,contact,start          !  starting to send contact
/wb,contact,end            !  done creating contacts
/golist
/wb,load,start             !  starting to send loads
/com,********* Frictionless Supports X *********
CMBLOCK,_FRICSUX,NODE,       98
(8i10)
      2149      2150      2151      2152      2153      2154      2155      2156
      2157      2158      2159      2160      2161      2162      2163      2164
      2165      2166      2167      2168      2273      2274      2275      2276
      2277      2278      2279      2280      2281      2282      2283      2284
      2285      2286      2287      2288      2289      2290      2291      2292
      7847      7848      7849      7850      7851      7852      7853      7854
      7855      7856      7857      7858      7859      7860      7861      7862
      7863      7864      7865      7866      7867      7868      7869      7870
      7871      7872      7873      7874      7875      7876      7877      7878
      7879      7880      7881      7882      7883      7884      7885      8042
      8043      8044      8045      8046      8047      8048      8049      8050
      8051      8052      8053      8054      8055      8056      8057      8058
      8059      8060
cmsel,s,_FRICSUX
d,all,ux,0
nsel,all
/com,********* Frictionless Supports Y *********
CMBLOCK,_FRICSUY,NODE,     3476
(8i10)
         1         2         3         4         5         6         7         8
         9        10        11        12        13        14        15        16
        17        18        19        20        21        22        23        24
        25        26        27        28        29        30        31        32
        33        34        35        36        37        38        39        40
        41        42        43        44        45        46        47        48
        49        50        51        52        53        54        55        56
        57        58        59        60        61        62        63        64
        65        66        67        68        69        70        71        72
        73        74        75        76        77        78        79        80
        81        82        83        84        85        86        87        88
        89        90        91        92        93        94        95        96
        97        98        99       100       101       102       103       104
       105       106       107       108       109       110       111       112
       113       114       115       116       117       118       119       120
       121       122       123       124       125       126       127       128
       129       130       131       132       133       134       135       136
       137       138       139       140       141       142       143       144
       145       146       147       148       149       150       151       152
       153       154       155       156       157       158       159       160
! ... 415 like lines cut
cmsel,s,_FRICSUY
d,all,uy,0
nsel,all
/com,********* Frictionless Supports Z *********
CMBLOCK,_FRICSUZ,NODE,      258
(8i10)
      2169      2170      2171      2172      2173      2174      2175      2176
      2177      2178      2179      2180      2181      2182      2183      2184
      2185      2186      2187      2188      2189      2190      2191      2192
      2193      2194      2195      2196      2197      2198      2199      2200
      2201      2202      2203      2204      2205      2206      2207      2208
      2209      2210      2211      2212      2213      2214      2215      2216
      2217      2218      2219      2220      2221      2222      2223      2224
      2225      2226      2227      2228      2229      2230      2231      2232
      2233      2234      2235      2236      2237      2238      2239      2240
      2241      2242      2243      2244      2245      2246      2247      2248
      2249      2250      2251      2252      2253      2254      2255      2256
      2257      2258      2259      2260      2261      2262      2263      2264
      2265      2266      2267      2268      2269      2270      2271      2272
      7886      7887      7888      7889      7890      7891      7892      7893
      7894      7895      7896      7897      7898      7899      7900      7901
      7902      7903      7904      7905      7906      7907      7908      7909
      7910      7911      7912      7913      7914      7915      7916      7917
      7918      7919      7920      7921      7922      7923      7924      7925
      7926      7927      7928      7929      7930      7931      7932      7933
      7934      7935      7936      7937      7938      7939      7940      7941
! ... 13 like lines cut
cmsel,s,_FRICSUZ
d,all,uz,0
nsel,all
/com,*********** Define Force Using Surface Effect Elements ***********
local,12,0,0.,0.,0.,0.,0.,0.
csys,0
et,2,154
eblock,10,,,21
(15i9)
     3476        2        2        2       12     2345     2346     2095     2096     8115     7740     7739     7742
     3477        2        2        2       12     2346     2347     2094     2095     8116     7738     7737     7740
     3478        2        2        2       12     2347     2348     2093     2094     8117     7736     7735     7738
     3479        2        2        2       12     2348     2349     2092     2093     8118     7734     7733     7736
     3480        2        2        2       12     2349     2350     2091     2092     8119     7732     7731     7734
     3481        2        2        2       12     2350     2351     2090     2091     8120     7730     7729     7732
     3482        2        2        2       12     2351     2352     2089     2090     8121     7728     7727     7730
     3483        2        2        2       12     2352     2353     2088     2089     8122     7726     7725     7728
     3484        2        2        2       12     2353     2354     2087     2088     8123     7724     7723     7726
     3485        2        2        2       12     2354     2355     2086     2087     8124     7722     7721     7724
     3486        2        2        2       12     2355     2356     2085     2086     8125     7720     7719     7722
     3487        2        2        2       12     2356     2357     2084     2085     8126     7718     7717     7720
     3488        2        2        2       12     2357     2358     2083     2084     8127     7716     7715     7718
     3489        2        2        2       12     2358     2359     2082     2083     8128     7714     7713     7716
     3490        2        2        2       12     2359     2360     2081     2082     8129     7712     7711     7714
     3491        2        2        2       12     2360     2361     2080     2081     8130     7710     7709     7712
     3492        2        2        2       12     2361     2362     2079     2080     8131     7708     7707     7710
     3493        2        2        2       12     2362     2363     2078     2079     8132     7706     7705     7708
     3494        2        2        2       12     2363     2364     2077     2078     8133     7704     7703     7706
     3495        2        2        2       12     2364     2365     2076     2077     8134     7702     7700     7704
     3496        2        2        2       12     2365     2272     2220     2076     8041     7988     7701     7702
-1
esel,s,type,,2
keyop,2,2,1                ! Apply load in local coordinate system
keyop,2,7,1                ! Use original area so load is constant in large deformation
esel,all
/gst,on,on
fini
*get,_numnode,node,0,count
*get,_numelem,elem,0,count
*get, _MAXELEMNUM, elem, 0, NUM, MAX
*get, _MAXNODENUM, node, 0, NUM, MAX
*get, _MAXELEMTYPE, etyp, 0, NUM, MAX
*get, _MAXREALCONST, real, 0, NUM, MAX
/go
/wb,load,end               !  done creating loads
/com,--- Number of total nodes = %_numnode%
/com,--- Number of contact elements = 21
/com,--- Number of spring elements = 0
/com,--- Number of bearing elements = 0
/com,--- Number of solid elements = 1109
/com,--- Number of condensed parts = 0
/com,--- Number of total elements = %_numelem%
*get,_wallbsol,active,,time,wall
/com,****************************************************************************
/com,*************************    SOLUTION       ********************************
/com,****************************************************************************
/solu
antype,0                   ! static analysis
_thickRatio=  0     ! Ratio of thick parts in the model
eqsl,sparse,,,,,1
cntr,print,1               ! print out contact info and also make no initial contact an error
dmpoption,emat,no             ! Don't combine emat file for DANSYS
dmpoption,esav,no             ! Don't combine esav file for DANSYS
nldiag,cont,iter           ! print out contact info each equilibrium iteration
rescontrol,,none                 ! Do not keep any restart files
/com,****************************************************
/com,******************* SOLVE FOR LS 1 OF 1 ****************
esel,s,type,,2
nsle
sfe,all,1,pres,1,2.00000000000015
sfe,all,2,pres,1,0.
sfe,all,3,pres,1,-8.88178419700191e-016
nsel,all
esel,all
/nopr
/gopr
nsub,1,1,1
time,1.
outres,erase
outres,all,none
outres,nsol,all,
outres,rsol,all
outres,eangl,all
outres,etmp,all
outres,veng,all
outres,strs,all,
outres,epel,all,
outres,eppl,all,
outres,cont,all,
! *********** WB SOLVE COMMAND ***********
! check interactive state
*get,ANSINTER_,active,,int
*if,ANSINTER_,ne,0,then
/eof
*endif
solve
/com *************** Write FE CONNECTORS ********* 
CEWRITE,file,ce,,INTE
/com,****************************************************
/com,*************** FINISHED SOLVE FOR LS 1 *************
*get,_wallasol,active,,time,wall
/nopr
*get,_numnode,node,0,count
*get,_numelem,elem,0,count
*get, _MAXELEMNUM, elem, 0, NUM, MAX
*get, _MAXNODENUM, node, 0, NUM, MAX,,,INTERNAL
*get, _MAXELEMTYPE, etyp, 0, NUM, MAX
*get, _MAXREALCONST, real, 0, NUM, MAX
/gopr
/post1
xmlo,ENCODING,ISO-8859-1
xmlo,parm
/xml,parm,xml
fini
/gopr
*get,_walldone,active,,time,wall
_preptime=(_wallbsol-_wallstrt)*3600
_solvtime=(_wallasol-_wallbsol)*3600
_posttime=(_walldone-_wallasol)*3600
_totaltim=(_walldone-_wallstrt)*3600
*get,_dlbratio,active,0,solu,dlbr
*get,_combtime,active,0,solu,comb
*get,_ssmode,active,0,solu,ssmm
*get,_ndofs,active,0,solu,ndof
/com,--- Total number of nodes = %_numnode%
/com,--- Total number of elements = %_numelem%
/com,--- Element load balance ratio = %_dlbratio%
/com,--- Time to combine distributed files = %_combtime%
/com,--- Sparse memory mode = %_ssmode%
/com,--- Number of DOF = %_ndofs%
/wb,file,end               ! done with WB generated input
