/batch
/config,noeldb,1     ! force off writing results to database
*get,_wallstrt,active,,time,wall
! ANSYS input file written by Workbench version 2021 R2
! File used for geometry attach: C:\Users\luizg\OneDrive\OneDrive_SYNC\UnB\2021.2\FGA0039-mecanica_de_estruturas_aeroespaciais\Ansys_2021.2\EI1A_files\dp3\SYS\DM\SYS.agdb
/title,EI1A--Static Structural (A5)
! ****** Begin Custom Load Command Snippet ******
/COM, ACT Extensions:
/COM,     LSDYNA, 2021.1
/COM,     5f463412-bd3e-484b-87e7-cbc0a665e474, wbex
/COM,
! ****** End   Custom Load Command Snippet ******
*DIM,_wb_ProjectScratch_dir,string,248
_wb_ProjectScratch_dir(1) = 'C:\Users\luizg\OneDrive\OneDrive_SYNC\UnB\2021.2\FGA0039-mecanica_de_estruturas_aeroespaciais\Ansys_2021.2\_ProjectScratch\Scr1BA3\'
*DIM,_wb_SolverFiles_dir,string,248
_wb_SolverFiles_dir(1) = 'C:\Users\luizg\OneDrive\OneDrive_SYNC\UnB\2021.2\FGA0039-mecanica_de_estruturas_aeroespaciais\Ansys_2021.2\EI1A_files\dp3\SYS\MECH\'
*DIM,_wb_userfiles_dir,string,248
_wb_userfiles_dir(1) = 'C:\Users\luizg\OneDrive\OneDrive_SYNC\UnB\2021.2\FGA0039-mecanica_de_estruturas_aeroespaciais\Ansys_2021.2\EI1A_files\user_files\'
/com,--- Data in consistent NMM units. See Solving Units in the help system for more information.
/units,MPA
/nopr
/wb,file,start              !  signify a WB generated input file
/prep7
! Turn off shape checking because checks already performed inside WB mesher.
! See help system for more information.
SHPP,OFF,,NOWARN
/nolist
etcon,set             ! allow ANSYS to choose best KEYOP's for 180x elements, resets any applicable keyopt to MAPDL defaults
/com,*********** Nodes for the whole assembly ***********
nblock,3,,4442
(1i9,3e20.9e3)
        1     3.843783887E+01     7.294990995E+01     0.000000000E+00
        2     4.778797322E+01     7.076906248E+01     0.000000000E+00
        3     7.521485204E+01     3.964305320E+01     0.000000000E+00
        4     9.676119592E+01     5.999949497E+01     0.000000000E+00
        5     1.066036531E+02     5.999775958E+01     0.000000000E+00
        6     1.164237783E+02     5.998840599E+01     0.000000000E+00
        7     1.262497103E+02     5.998555840E+01     0.000000000E+00
        8     1.360824209E+02     5.998553211E+01     0.000000000E+00
        9     1.459170703E+02     5.998554422E+01     0.000000000E+00
       10     1.557522853E+02     5.998554198E+01     0.000000000E+00
       11     1.655876627E+02     5.998553651E+01     0.000000000E+00
       12     1.754230860E+02     5.998553021E+01     0.000000000E+00
       13     1.853573288E+02     5.998956140E+01     0.000000000E+00
       14     1.951896154E+02     5.998955049E+01     0.000000000E+00
       15     2.050219023E+02     5.998953956E+01     0.000000000E+00
       16     2.148541894E+02     5.998952862E+01     0.000000000E+00
       17     2.246864765E+02     5.998951764E+01     0.000000000E+00
       18     2.345187638E+02     5.998950665E+01     0.000000000E+00
       19     2.443510512E+02     5.998949563E+01     0.000000000E+00
       20     2.541833386E+02     5.998948459E+01     0.000000000E+00
! ... 4020 like lines cut
/wb,elem,start            !  set before creation of elements
/com,*********** Elements for Body 1 "Solid" ***********
et,1,186
keyo,1,2,1          ! set full integration on SOLID186
eblock,19,solid,,533
(19i9)
        1        1        1        1        0        0        0        0       20        0        1       72      183      376      473      875      764      571      474
     1456     1893     2459     1457     3344     2947     2669     2672     1458     1895     2460     2668
        1        1        1        1        0        0        0        0       20        0        2       71       72      473      182      876      875      474      765
     1451     1457     1890     1452     3571     2672     2671     3346     1453     1458     2668     1891
        1        1        1        1        0        0        0        0       20        0        3        2      182      473      373      945      765      474      574
     1196     1890     2450     1198     3347     2671     2670     2953     1199     1891     2668     2451
        1        1        1        1        0        0        0        0       20        0        4      373      473      376      375      574      474      571      572
     2450     2459     2456     2449     2670     2669     2946     2949     2451     2668     2460     2457
        1        1        1        1        0        0        0        0       20        0        5      183      459      453      376      764      488      494      571
     1894     2630     2458     1893     2715     2714     2733     2947     1895     2643     2632     2460
        1        1        1        1        0        0        0        0       20        0        6        3      459      183      184      944      488      764      763
     1203     1894     1892     1200     2716     2715     3341     3343     1204     2643     1895     1897
        1        1        1        1        0        0        0        0       20        0        7       69       70      181      177      878      877      766      770
     1443     1448     1875     1444     3575     3349     3348     3357     1445     1449     1889     1878
        1        1        1        1        0        0        0        0       20        0        8        1      371      177      181      946      576      770      766
     1194     1877     1875     1192     2958     2957     3348     3350     1195     2445     1878     1889
        1        1        1        1        0        0        0        0       20        0        9      177      371      279      278      770      576      668      669
     1877     2176     2173     1876     2957     2956     3147     3149     1878     2445     2177     2174
        1        1        1        1        0        0        0        0       20        0       10       20       48       47       21      927      899      900      926
     1271     1371     1275     1270     3621     3620     3623     3656     1273     1376     1373     1277
! ... 1047 like lines cut
!Material Id = {E65CE5B7-DBBA-420E-9FCC-6E66E1CF66A6}
/wb,elem,end               !  done creating elements
/com,*********** Send User Defined Coordinate System(s) ***********
csys,0
toffst,273.15,  ! Temperature offset from absolute zero
/com,*********** Set Reference Temperature ***********
tref,22.
/wb,mat,start              !  starting to send materials
/com,*********** Send Materials ***********
Temperature = 'TEMP' ! Temperature
MP,DENS,1,7.85e-09,	! tonne mm^-3
MP,ALPX,1,1.2e-05,	! C^-1
MP,C,1,434000000,	! mm^2 s^-2 C^-1
MP,KXX,1,60.5,	! tonne mm s^-3 C^-1
MP,RSVX,1,0.00017,	! ohm mm
MP,EX,1,200000,	! tonne s^-2 mm^-1
MP,NUXY,1,0.3,
MP,MURX,1,10000,
MP,UVID,1,ba66a548-bd17-4757-ba2a-6bc354de8f2c
MP,UMID,1,59002a79-71c2-428e-906b-55d7dbee100e

/wb,mat,end                !  done sending materials
!************************* Model Summary ********************
!Solid,	Structural Steel,	matid,	1
!************************* End Model Summary ********************
! get the diagonal of the bounding box. Needed later for other things
*get,_xmin,node,,mnloc,x
*get,_ymin,node,,mnloc,y
*get,_zmin,node,,mnloc,z
*get,_xmax,node,,mxloc,x
*get,_ymax,node,,mxloc,y
*get,_zmax,node,,mxloc,z
_ASMDIAG=(_xmax-_xmin)*(_xmax-_xmin)+(_ymax-_ymin)*(_ymax-_ymin)+(_zmax-_zmin)*(_zmax-_zmin)
_ASMDIAG=SQRT(_ASMDIAG)
/wb,contact,start          !  starting to send contact
/wb,contact,end            !  done creating contacts
/golist
/wb,load,start             !  starting to send loads
/com,********* Frictionless Supports X *********
CMBLOCK,_FRICSUX,NODE,       33
(8i10)
      1053      1054      1055      1056      1057      1058      1067      1078
      1079      1080      1081      1082      1083      1084      3887      3888
      3889      3890      3891      3892      3893      3894      3895      3896
      3897      3898      3916      3928      3929      3930      3931      3932
      3933
cmsel,s,_FRICSUX
d,all,ux,0
nsel,all
/com,********* Frictionless Supports Y *********
CMBLOCK,_FRICSUY,NODE,      228
(8i10)
       947       948       949       950       951       952       953       954
       955       956       957       958       959       960       961       962
       963       964       965       966       967       968       969       970
       971       972       973       974       975       976       977       978
       979       980       981       982       983       984       985       986
       987       988       989       990       991      1059      1070      1146
      1147      1148      1149      1150      1151      1152      1153      1154
      1155      1156      1157      1158      1159      1160      1161      1162
      1163      1164      1165      1166      1167      1168      1169      1170
      1171      1172      1173      1174      1175      1176      1177      1178
      1179      1180      1181      1182      1183      1184      1185      1186
      1187      1188      1189      1190      3674      3675      3676      3677
      3678      3679      3680      3681      3682      3683      3684      3685
      3686      3687      3688      3689      3690      3691      3692      3693
      3694      3695      3696      3697      3698      3699      3700      3701
      3702      3703      3704      3705      3706      3707      3708      3709
      3710      3711      3712      3713      3714      3715      3716      3717
      3718      3719      3720      3721      3722      3723      3724      3725
      3726      3727      3728      3729      3730      3731      3732      3733
      3734      3735      3736      3737      3738      3739      3740      3741
! ... 9 like lines cut
cmsel,s,_FRICSUY
d,all,uy,0
nsel,all
/com,********* Frictionless Supports Z *********
CMBLOCK,_FRICSUZ,NODE,     1722
(8i10)
         1         2         3         4         5         6         7         8
         9        10        11        12        13        14        15        16
        17        18        19        20        21        22        23        24
        25        26        27        28        29        30        31        32
        33        34        35        36        37        38        39        40
        41        42        43        44        45        46        47        48
        49        50        51        52        53        54        55        56
        57        58        59        60        61        62        63        64
        65        66        67        68        69        70        71        72
        73        74        75        76        77        78        79        80
        81        82        83        84        85        86        87        88
        89        90        91        92        93        94        95        96
        97        98        99       100       101       102       103       104
       105       106       107       108       109       110       111       112
       113       114       115       116       117       118       119       120
       121       122       123       124       125       126       127       128
       129       130       131       132       133       134       135       136
       137       138       139       140       141       142       143       144
       145       146       147       148       149       150       151       152
       153       154       155       156       157       158       159       160
! ... 196 like lines cut
cmsel,s,_FRICSUZ
d,all,uz,0
nsel,all
/com,*********** Define Force Using Surface Effect Elements ***********
local,12,0,0.,0.,0.,0.,0.,0.
csys,0
et,2,154
eblock,10,,,11
(15i9)
     1722        2        2        2       12     1146     1145      992      991     3995     3766     3763     3764
     1723        2        2        2       12     1145     1144      993      992     3994     3768     3765     3766
     1724        2        2        2       12     1144     1143      994      993     3993     3770     3767     3768
     1725        2        2        2       12     1143     1142      995      994     3992     3772     3769     3770
     1726        2        2        2       12     1142     1141      996      995     3991     3774     3771     3772
     1727        2        2        2       12     1141     1140      997      996     3990     3776     3773     3774
     1728        2        2        2       12     1140     1139      998      997     3989     3778     3775     3776
     1729        2        2        2       12     1139     1138      999      998     3988     3780     3777     3778
     1730        2        2        2       12     1138     1137     1000      999     3987     3782     3779     3780
     1731        2        2        2       12     1137     1136     1001     1000     3986     3784     3781     3782
     1732        2        2        2       12     1136     1135     1002     1001     3985     3786     3783     3784
-1
esel,s,type,,2
keyop,2,2,1                ! Apply load in local coordinate system
keyop,2,7,1                ! Use original area so load is constant in large deformation
esel,all
/gst,on,on
fini
*get,_numnode,node,0,count
*get,_numelem,elem,0,count
*get, _MAXELEMNUM, elem, 0, NUM, MAX
*get, _MAXNODENUM, node, 0, NUM, MAX
*get, _MAXELEMTYPE, etyp, 0, NUM, MAX
*get, _MAXREALCONST, real, 0, NUM, MAX
/go
/wb,load,end               !  done creating loads
/com,--- Number of total nodes = %_numnode%
/com,--- Number of contact elements = 11
/com,--- Number of spring elements = 0
/com,--- Number of bearing elements = 0
/com,--- Number of solid elements = 533
/com,--- Number of condensed parts = 0
/com,--- Number of total elements = %_numelem%
*get,_wallbsol,active,,time,wall
/com,****************************************************************************
/com,*************************    SOLUTION       ********************************
/com,****************************************************************************
/solu
antype,0                   ! static analysis
_thickRatio=  0     ! Ratio of thick parts in the model
eqsl,sparse,,,,,1
cntr,print,1               ! print out contact info and also make no initial contact an error
dmpoption,emat,no             ! Don't combine emat file for DANSYS
dmpoption,esav,no             ! Don't combine esav file for DANSYS
nldiag,cont,iter           ! print out contact info each equilibrium iteration
rescontrol,,none                 ! Do not keep any restart files
/com,****************************************************
/com,******************* SOLVE FOR LS 1 OF 1 ****************
esel,s,type,,2
nsle
sfe,all,1,pres,1,12.121212121213
sfe,all,2,pres,1,0.
sfe,all,3,pres,1,0.
nsel,all
esel,all
/nopr
/gopr
nsub,1,1,1
time,1.
outres,erase
outres,all,none
outres,nsol,all,
outres,rsol,all
outres,eangl,all
outres,etmp,all
outres,veng,all
outres,strs,all,
outres,epel,all,
outres,eppl,all,
outres,cont,all,
! *********** WB SOLVE COMMAND ***********
! check interactive state
*get,ANSINTER_,active,,int
*if,ANSINTER_,ne,0,then
/eof
*endif
solve
/com *************** Write FE CONNECTORS ********* 
CEWRITE,file,ce,,INTE
/com,****************************************************
/com,*************** FINISHED SOLVE FOR LS 1 *************
*get,_wallasol,active,,time,wall
/nopr
*get,_numnode,node,0,count
*get,_numelem,elem,0,count
*get, _MAXELEMNUM, elem, 0, NUM, MAX
*get, _MAXNODENUM, node, 0, NUM, MAX,,,INTERNAL
*get, _MAXELEMTYPE, etyp, 0, NUM, MAX
*get, _MAXREALCONST, real, 0, NUM, MAX
/gopr
/post1
xmlo,ENCODING,ISO-8859-1
xmlo,parm
/xml,parm,xml
fini
/gopr
*get,_walldone,active,,time,wall
_preptime=(_wallbsol-_wallstrt)*3600
_solvtime=(_wallasol-_wallbsol)*3600
_posttime=(_walldone-_wallasol)*3600
_totaltim=(_walldone-_wallstrt)*3600
*get,_dlbratio,active,0,solu,dlbr
*get,_combtime,active,0,solu,comb
*get,_ssmode,active,0,solu,ssmm
*get,_ndofs,active,0,solu,ndof
/com,--- Total number of nodes = %_numnode%
/com,--- Total number of elements = %_numelem%
/com,--- Element load balance ratio = %_dlbratio%
/com,--- Time to combine distributed files = %_combtime%
/com,--- Sparse memory mode = %_ssmode%
/com,--- Number of DOF = %_ndofs%
/wb,file,end               ! done with WB generated input
