/batch
/config,noeldb,1     ! force off writing results to database
*get,_wallstrt,active,,time,wall
! ANSYS input file written by Workbench version 2021 R2
! File used for geometry attach: C:\Users\luizg\AppData\Local\Temp\WB_luizg_9852_2\wbnew_files\dp4\SYS\DM\SYS.agdb
/title,wbnew--Static Structural (A5)
! ****** Begin Custom Load Command Snippet ******
/COM, ACT Extensions:
/COM,     LSDYNA, 2021.1
/COM,     5f463412-bd3e-484b-87e7-cbc0a665e474, wbex
/COM,
! ****** End   Custom Load Command Snippet ******
*DIM,_wb_ProjectScratch_dir,string,248
_wb_ProjectScratch_dir(1) = 'C:\Users\luizg\AppData\Local\Temp\WB_luizg_9852_2\_ProjectScratch\ScrF912\'
*DIM,_wb_SolverFiles_dir,string,248
_wb_SolverFiles_dir(1) = 'C:\Users\luizg\AppData\Local\Temp\WB_luizg_9852_2\wbnew_files\dp4\SYS\MECH\'
*DIM,_wb_userfiles_dir,string,248
_wb_userfiles_dir(1) = 'C:\Users\luizg\AppData\Local\Temp\WB_luizg_9852_2\wbnew_files\user_files\'
/com,--- Data in consistent NMM units. See Solving Units in the help system for more information.
/units,MPA
/nopr
/wb,file,start              !  signify a WB generated input file
/prep7
! Turn off shape checking because checks already performed inside WB mesher.
! See help system for more information.
SHPP,OFF,,NOWARN
/nolist
etcon,set             ! allow ANSYS to choose best KEYOP's for 180x elements, resets any applicable keyopt to MAPDL defaults
/com,*********** Nodes for the whole assembly ***********
nblock,3,,13510
(1i9,3e20.9e3)
        1    -0.000000000E+00     2.745000000E+02    -1.445000000E+02
        2    -1.445000000E+02     2.745000000E+02     0.000000000E+00
        3    -9.861028731E+00     2.745000000E+02    -1.441631371E+02
        4    -1.967608079E+01     2.745000000E+02    -1.431541192E+02
        5    -2.939939389E+01     2.745000000E+02    -1.414776507E+02
        6    -3.898563343E+01     2.745000000E+02    -1.391415480E+02
        7    -4.839010396E+01     2.745000000E+02    -1.361567032E+02
        8    -5.756895748E+01     2.745000000E+02    -1.325370331E+02
        9    -6.647939795E+01     2.745000000E+02    -1.282994141E+02
       10    -7.507988078E+01     2.745000000E+02    -1.234636040E+02
       11    -8.333030655E+01     2.745000000E+02    -1.180521495E+02
       12    -9.119220796E+01     2.745000000E+02    -1.120902815E+02
       13    -9.862892920E+01     2.745000000E+02    -1.056057968E+02
       14    -1.056057968E+02     2.745000000E+02    -9.862892920E+01
       15    -1.120902815E+02     2.745000000E+02    -9.119220796E+01
       16    -1.180521495E+02     2.745000000E+02    -8.333030655E+01
       17    -1.234636040E+02     2.745000000E+02    -7.507988078E+01
       18    -1.282994141E+02     2.745000000E+02    -6.647939795E+01
       19    -1.325370331E+02     2.745000000E+02    -5.756895748E+01
       20    -1.361567032E+02     2.745000000E+02    -4.839010396E+01
! ... 12263 like lines cut
/wb,elem,start            !  set before creation of elements
/com,*********** Elements for Body 1 "Solid" ***********
et,1,187
eblock,19,solid,,5978
(19i9)
        1        1        1        1        0        0        0        0       10        0        1      875      921     1534      892     7502     7812     7507     7501
     7611     7616
        1        1        1        1        0        0        0        0       10        0        2      200      201      357     1940     3411     3419     3414     3416
     3422     4131
        1        1        1        1        0        0        0        0       10        0        3     1899     2034     2039     1979    11751    12233    11752    11750
    12061    12062
        1        1        1        1        0        0        0        0       10        0        4      133      395      216     1140     3062     3504     3061     3064
     4327     3506
        1        1        1        1        0        0        0        0       10        0        5      718     1375     1444      719     6444     9714     6446     6441
     6452     6454
        1        1        1        1        0        0        0        0       10        0        6      533     1290     1368     1291     5192     9465     5195     5193
     9463     9467
        1        1        1        1        0        0        0        0       10        0        7      662      739     1451      738     6065     6588     6069     6064
     6576     6580
        1        1        1        1        0        0        0        0       10        0        8      889     1608     1586     1575     7600    10320     7599     7598
    10290    10289
        1        1        1        1        0        0        0        0       10        0        9     1000     1029     1001     1699     8357     8363     8355     8361
     8560     8367
        1        1        1        1        0        0        0        0       10        0       10      717      788      718     1445     6436     6442     6434     6439
     6913     6447
! ... 11937 like lines cut
!Material Id = {D164255E-9DF9-4FC9-9FC1-751398D91660}
/wb,elem,end               !  done creating elements
/com,*********** Send User Defined Coordinate System(s) ***********
csys,0
toffst,273.15,  ! Temperature offset from absolute zero
/com,*********** Set Reference Temperature ***********
tref,22.
/wb,mat,start              !  starting to send materials
/com,*********** Send Materials ***********
Temperature = 'TEMP' ! Temperature
MP,DENS,1,7.85e-09,	! tonne mm^-3
MP,ALPX,1,1.2e-05,	! C^-1
MP,C,1,434000000,	! mm^2 s^-2 C^-1
MP,KXX,1,60.5,	! tonne mm s^-3 C^-1
MP,RSVX,1,0.00017,	! ohm mm
MP,EX,1,200000,	! tonne s^-2 mm^-1
MP,NUXY,1,0.3,
MP,MURX,1,10000,
MP,UVID,1,e47ff26a-91f2-41be-a64d-e4b89b7dcf4a
MP,UMID,1,59002a79-71c2-428e-906b-55d7dbee100e

/wb,mat,end                !  done sending materials
!************************* Model Summary ********************
!Solid,	Structural Steel,	matid,	1
!************************* End Model Summary ********************
! get the diagonal of the bounding box. Needed later for other things
*get,_xmin,node,,mnloc,x
*get,_ymin,node,,mnloc,y
*get,_zmin,node,,mnloc,z
*get,_xmax,node,,mxloc,x
*get,_ymax,node,,mxloc,y
*get,_zmax,node,,mxloc,z
_ASMDIAG=(_xmax-_xmin)*(_xmax-_xmin)+(_ymax-_ymin)*(_ymax-_ymin)+(_zmax-_zmin)*(_zmax-_zmin)
_ASMDIAG=SQRT(_ASMDIAG)
/wb,contact,start          !  starting to send contact
/wb,contact,end            !  done creating contacts
/golist
/wb,load,start             !  starting to send loads
/com,********* Frictionless Supports X *********
CMBLOCK,_FRICSUX,NODE,      267
(8i10)
         1        25        26        27        28        29        30        31
        32        33        34        35        36        37        38        39
        54        80        82       108       109       110       111       112
       113       114       115       116       117       118       119       120
       121       122       123       124       125       126       127       128
       129       130       131       132       133       160       187       214
       215       216       217       218       219       220       221       222
       223       224       225       226       227       228       229       230
       231       232       233       234       235       236       237       238
       239       240       268       284       285       286       287       288
       289       290       291       292       293       294       295       296
       297       298      2106      2107      2108      2109      2332      2334
      2335      2337      2338      2341      2342      2343      2347      2348
      2349      2354      2355      2356      2360      2361      2362      2366
      2367      2368      2372      2373      2374      2378      2379      2380
      2386      2387      2388      2393      2394      2395      2400      2401
      2402      2406      2407      2408      2412      2413      2414      2418
      2419      2503      2504      2505      2506      2742      2743      2744
      2754      2755      2910      2911      2912      2915      2916      2917
      2922      2923      2924      2928      2929      2930      2934      2935
! ... 14 like lines cut
cmsel,s,_FRICSUX
d,all,ux,0
nsel,all
/com,********* Frictionless Supports Y *********
CMBLOCK,_FRICSUY,NODE,      156
(8i10)
        82        83        84        85        86        87        88        89
        90        91        92        93        94        95        96        97
        98        99       100       101       102       103       104       105
       106       107       160       161       162       163       164       165
       166       167       168       169       170       171       172       173
       174       175       176       177       178       179       180       181
       182       183       184       185       186      2753      2755      2756
      2758      2760      2761      2763      2765      2766      2771      2772
      2773      2778      2779      2780      2784      2785      2786      2790
      2791      2792      2796      2797      2798      2802      2803      2804
      2808      2809      2810      2814      2815      2816      2820      2821
      2822      2826      2827      2828      2832      2833      2834      2838
      2839      2840      2844      2845      2846      2850      2851      2852
      2856      2857      2858      2862      2863      2864      2868      2869
      2870      2874      2875      2876      2880      2881      2882      2886
      2887      2888      2893      2894      2895      2900      2901      2902
      2906      2907      3223      3226      3229      3233      3236      3240
      3244      3248      3252      3256      3260      3264      3268      3272
      3276      3280      3284      3288      3292      3296      3300      3304
      3308      3312      3315      3319
cmsel,s,_FRICSUY
d,all,uy,0
nsel,all
/com,********* Frictionless Supports Z *********
CMBLOCK,_FRICSUZ,NODE,      267
(8i10)
         2        25        40        41        42        43        44        45
        46        47        48        49        50        51        52        53
        55        81        83       134       135       136       137       138
       139       140       141       142       143       144       145       146
       147       148       149       150       151       152       153       154
       155       156       157       158       159       161       188       241
       242       243       244       245       246       247       248       249
       250       251       252       253       254       255       256       257
       258       259       260       261       262       263       264       265
       266       267       268       269       270       271       272       273
       274       275       276       277       278       279       280       281
       282       283      2113      2114      2115      2116      2333      2334
      2421      2422      2423      2425      2426      2427      2431      2432
      2433      2437      2438      2439      2443      2444      2445      2449
      2450      2451      2454      2455      2456      2460      2461      2462
      2467      2468      2469      2473      2474      2475      2479      2480
      2481      2485      2486      2487      2491      2492      2493      2497
      2498      2510      2511      2512      2513      2748      2749      2750
      2759      2760      3065      3066      3067      3072      3073      3074
      3078      3079      3080      3084      3085      3086      3091      3092
! ... 14 like lines cut
cmsel,s,_FRICSUZ
d,all,uz,0
nsel,all
/com,*********** Define Pressure Using Surface Effect Elements "Pressure" ***********
et,2,154
eblock,10,,,1919
(15i9)
    10173        2        2        2        0       80        1        3        3     2107     2105        3     2120
    10174        2        2        2        0       54       80       56       56     2503     2517       56     2502
    10175        2        2        2        0        2       81       24       24     2114     2323       24     2112
    10176        2        2        2        0       81       55       79       79     2510     2509       79     2732
    10177        2        2        2        0       57       56      299      299     2516     2520      299     2526
    10178        2        2        2        0       58       57      300      300     2525     2527      300     2536
    10179        2        2        2        0       59       58      301      301     2535     2537      301     2545
    10180        2        2        2        0       60       59      302      302     2544     2546      302     2555
    10181        2        2        2        0       61       60      303      303     2554     2556      303     2564
    10182        2        2        2        0       62       61      304      304     2563     2565      304     2573
    10183        2        2        2        0       63       62      305      305     2572     2574      305     2582
    10184        2        2        2        0       64       63      306      306     2581     2583      306     2591
    10185        2        2        2        0       65       64      307      307     2590     2592      307     2600
    10186        2        2        2        0       66       65      308      308     2599     2601      308     2610
    10187        2        2        2        0       67       66      309      309     2609     2611      309     2620
    10188        2        2        2        0       68       67      310      310     2619     2621      310     2630
    10189        2        2        2        0       69       68      311      311     2629     2631      311     2641
    10190        2        2        2        0       70       69      312      312     2640     2642      312     2651
    10191        2        2        2        0       71       70      313      313     2650     2652      313     2661
    10192        2        2        2        0       72       71      314      314     2660     2662      314     2670
! ... 1900 like lines cut
esel,s,type,,2
keyop,2,7,0                ! Use deformed area for application of load
esel,all
esel,all
/gst,on,on
fini
*get,_numnode,node,0,count
*get,_numelem,elem,0,count
*get, _MAXELEMNUM, elem, 0, NUM, MAX
*get, _MAXNODENUM, node, 0, NUM, MAX
*get, _MAXELEMTYPE, etyp, 0, NUM, MAX
*get, _MAXREALCONST, real, 0, NUM, MAX
/go
/wb,load,end               !  done creating loads
/com,--- Number of total nodes = %_numnode%
/com,--- Number of contact elements = 1919
/com,--- Number of spring elements = 0
/com,--- Number of bearing elements = 0
/com,--- Number of solid elements = 5978
/com,--- Number of condensed parts = 0
/com,--- Number of total elements = %_numelem%
*get,_wallbsol,active,,time,wall
/com,****************************************************************************
/com,*************************    SOLUTION       ********************************
/com,****************************************************************************
/solu
antype,0                   ! static analysis
_thickRatio=  0     ! Ratio of thick parts in the model
eqsl,sparse,,,,,1
cntr,print,1               ! print out contact info and also make no initial contact an error
dmpoption,emat,no             ! Don't combine emat file for DANSYS
dmpoption,esav,no             ! Don't combine esav file for DANSYS
nldiag,cont,iter           ! print out contact info each equilibrium iteration
rescontrol,,none                 ! Do not keep any restart files
/com,****************************************************
/com,******************* SOLVE FOR LS 1 OF 1 ****************
esel,s,type,,2
nsle
sf,all,pres,6.
nsel,all
esel,all
esel,all
/nopr
/gopr
nsub,1,1,1
time,1.
outres,erase
outres,all,none
outres,nsol,all,
outres,rsol,all
outres,eangl,all
outres,etmp,all
outres,veng,all
outres,strs,all,
outres,epel,all,
outres,eppl,all,
outres,cont,all,
! *********** WB SOLVE COMMAND ***********
! check interactive state
*get,ANSINTER_,active,,int
*if,ANSINTER_,ne,0,then
/eof
*endif
solve
/com *************** Write FE CONNECTORS ********* 
CEWRITE,file,ce,,INTE
/com,****************************************************
/com,*************** FINISHED SOLVE FOR LS 1 *************
*get,_wallasol,active,,time,wall
/nopr
*get,_numnode,node,0,count
*get,_numelem,elem,0,count
*get, _MAXELEMNUM, elem, 0, NUM, MAX
*get, _MAXNODENUM, node, 0, NUM, MAX,,,INTERNAL
*get, _MAXELEMTYPE, etyp, 0, NUM, MAX
*get, _MAXREALCONST, real, 0, NUM, MAX
/gopr
/post1
xmlo,ENCODING,ISO-8859-1
xmlo,parm
/xml,parm,xml
fini
/gopr
*get,_walldone,active,,time,wall
_preptime=(_wallbsol-_wallstrt)*3600
_solvtime=(_wallasol-_wallbsol)*3600
_posttime=(_walldone-_wallasol)*3600
_totaltim=(_walldone-_wallstrt)*3600
*get,_dlbratio,active,0,solu,dlbr
*get,_combtime,active,0,solu,comb
*get,_ssmode,active,0,solu,ssmm
*get,_ndofs,active,0,solu,ndof
/com,--- Total number of nodes = %_numnode%
/com,--- Total number of elements = %_numelem%
/com,--- Element load balance ratio = %_dlbratio%
/com,--- Time to combine distributed files = %_combtime%
/com,--- Sparse memory mode = %_ssmode%
/com,--- Number of DOF = %_ndofs%
/wb,file,end               ! done with WB generated input
