/batch
/config,noeldb,1     ! force off writing results to database
*get,_wallstrt,active,,time,wall
! ANSYS input file written by Workbench version 2021 R2
! File used for geometry attach: C:\Users\luizg\OneDrive\OneDrive_SYNC\UnB\2021.1\FGA0039-mecanica_de_estruturas_aeroespaciais\Ansys\exercicio_individual_4_files\dp4\SYS\DM\SYS.agdb
/title,exercicio_individual_4--Static Structural (A5)
! ****** Begin Custom Load Command Snippet ******
/COM, ACT Extensions:
/COM,     LSDYNA, 2021.1
/COM,     5f463412-bd3e-484b-87e7-cbc0a665e474, wbex
/COM,
! ****** End   Custom Load Command Snippet ******
*DIM,_wb_ProjectScratch_dir,string,248
_wb_ProjectScratch_dir(1) = 'C:\Users\luizg\OneDrive\OneDrive_SYNC\UnB\2021.1\FGA0039-mecanica_de_estruturas_aeroespaciais\Ansys\_ProjectScratch\Scr1CAA\'
*DIM,_wb_SolverFiles_dir,string,248
_wb_SolverFiles_dir(1) = 'C:\Users\luizg\OneDrive\OneDrive_SYNC\UnB\2021.1\FGA0039-mecanica_de_estruturas_aeroespaciais\Ansys\exercicio_individual_4_files\dp4\SYS\MECH\'
*DIM,_wb_userfiles_dir,string,248
_wb_userfiles_dir(1) = 'C:\Users\luizg\OneDrive\OneDrive_SYNC\UnB\2021.1\FGA0039-mecanica_de_estruturas_aeroespaciais\Ansys\exercicio_individual_4_files\user_files\'
/com,--- Data in consistent NMM units. See Solving Units in the help system for more information.
/units,MPA
/nopr
/wb,file,start              !  signify a WB generated input file
/prep7
! Turn off shape checking because checks already performed inside WB mesher.
! See help system for more information.
SHPP,OFF,,NOWARN
/nolist
etcon,set             ! allow ANSYS to choose best KEYOP's for 180x elements, resets any applicable keyopt to MAPDL defaults
/com,*********** Nodes for the whole assembly ***********
nblock,3,,12482
(1i9,3e20.9e3)
        1    -0.000000000E+00     2.745000000E+02    -1.445000000E+02
        2    -1.445000000E+02     2.745000000E+02     0.000000000E+00
        3    -0.000000000E+00     2.645000000E+02    -1.545000000E+02
        4    -1.545000000E+02     2.645000000E+02     0.000000000E+00
        5    -0.000000000E+00     0.000000000E+00    -1.545000000E+02
        6    -1.545000000E+02     0.000000000E+00     0.000000000E+00
        7    -0.000000000E+00     0.000000000E+00    -1.600000000E+02
        8    -1.600000000E+02     0.000000000E+00     0.000000000E+00
        9    -0.000000000E+00     2.800000000E+02    -1.600000000E+02
       10    -1.600000000E+02     2.800000000E+02     0.000000000E+00
       11    -1.597080887E+02     1.000000000E+01    -9.660559588E+00
       12    -1.588334199E+02     1.000000000E+01    -1.928586884E+01
       13    -1.573791851E+02     1.000000000E+01    -2.884080605E+01
       14    -1.553506908E+02     1.000000000E+01    -3.829050629E+01
       15    -1.527553386E+02     1.000000000E+01    -4.760048862E+01
       16    -1.496025988E+02     1.000000000E+01    -5.673678193E+01
       17    -1.459039754E+02     1.000000000E+01    -6.566604887E+01
       18    -1.416729641E+02     1.000000000E+01    -7.435570753E+01
       19    -1.369250036E+02     1.000000000E+01    -8.277405027E+01
       20    -1.316774185E+02     1.000000000E+01    -9.089035948E+01
! ... 11329 like lines cut
/wb,elem,start            !  set before creation of elements
/com,*********** Elements for Body 1 "Solid" ***********
et,1,187
eblock,19,solid,,5519
(19i9)
        1        1        1        1        0        0        0        0       10        0        1     1533     1945     1578     1702     9557     9789     9555     9556
    10632     9788
        1        1        1        1        0        0        0        0       10        0        2      764     1578     1945     1702     7076     9789     7079     7077
     9788    10632
        1        1        1        1        0        0        0        0       10        0        3      661     1945      686     1533     6622     6807     6617     6621
     9557     6806
        1        1        1        1        0        0        0        0       10        0        4       10      686     1945     1533     1996     6807     2000     1998
     6806     9557
        1        1        1        1        0        0        0        0       10        0        5       10      686      661     1945     1996     6617     1995     2000
     6807     6622
        1        1        1        1        0        0        0        0       10        0        6       10     1945     1578     1533     2000     9789     1999     1998
     9557     9555
        1        1        1        1        0        0        0        0       10        0        7       10      764     1578     1945     1997     7076     1999     2000
     7079     9789
        1        1        1        1        0        0        0        0       10        0        8     1486     1945     1533     1702     9258     9557     9255     9256
    10632     9556
        1        1        1        1        0        0        0        0       10        0        9       10      661      764     1945     1995     6618     1997     2000
     6622     7079
        1        1        1        1        0        0        0        0       10        0       10      661     1486     1945     1533     6620     9258     6622     6621
     9255     9557
! ... 11019 like lines cut
!Material Id = {D164255E-9DF9-4FC9-9FC1-751398D91660}
/wb,elem,end               !  done creating elements
/com,*********** Send User Defined Coordinate System(s) ***********
csys,0
toffst,273.15,  ! Temperature offset from absolute zero
/com,*********** Set Reference Temperature ***********
tref,22.
/wb,mat,start              !  starting to send materials
/com,*********** Send Materials ***********
Temperature = 'TEMP' ! Temperature
MP,DENS,1,7.85e-09,	! tonne mm^-3
MP,ALPX,1,1.2e-05,	! C^-1
MP,C,1,434000000,	! mm^2 s^-2 C^-1
MP,KXX,1,60.5,	! tonne mm s^-3 C^-1
MP,RSVX,1,0.00017,	! ohm mm
MP,EX,1,200000,	! tonne s^-2 mm^-1
MP,NUXY,1,0.3,
MP,MURX,1,10000,
MP,UVID,1,e47ff26a-91f2-41be-a64d-e4b89b7dcf4a
MP,UMID,1,59002a79-71c2-428e-906b-55d7dbee100e

/wb,mat,end                !  done sending materials
!************************* Model Summary ********************
!Solid,	Structural Steel,	matid,	1
!************************* End Model Summary ********************
! get the diagonal of the bounding box. Needed later for other things
*get,_xmin,node,,mnloc,x
*get,_ymin,node,,mnloc,y
*get,_zmin,node,,mnloc,z
*get,_xmax,node,,mxloc,x
*get,_ymax,node,,mxloc,y
*get,_zmax,node,,mxloc,z
_ASMDIAG=(_xmax-_xmin)*(_xmax-_xmin)+(_ymax-_ymin)*(_ymax-_ymin)+(_zmax-_zmin)*(_zmax-_zmin)
_ASMDIAG=SQRT(_ASMDIAG)
/wb,contact,start          !  starting to send contact
/wb,contact,end            !  done creating contacts
/golist
/wb,load,start             !  starting to send loads
/com,********* Frictionless Supports X *********
CMBLOCK,_FRICSUX,NODE,      267
(8i10)
         1         3         5         7         9       713       714       715
       716       717       718       719       720       721       722       723
       724       725       726       727       728       729       730       731
       732       733       734       735       736       737       738       739
      1414      1415      1416      1417      1418      1419      1420      1421
      1422      1423      1424      1425      1426      1427      1428      1429
      1430      1431      1432      1433      1434      1435      1436      1437
      1438      1439      1532      1534      1535      1536      1537      1538
      1539      1540      1541      1542      1543      1544      1545      1546
      1547      1548      1563      1579      1580      1581      1582      1583
      1584      1585      1586      1587      1588      1589      1590      1591
      1592      1593      1949      1950      1951      1952      1961      1962
      1964      1966      1974      1976      1984      1986      1990      1992
      1993      6885      6887      6889      6890      6891      6892      6893
      6894      6895      6896      6897      6898      6899      6900      6901
      6902      6903      6904      6905      6906      6907      6908      6909
      6910      6911      6912      6913      6914      6915      6916      6917
      6918      6919      6920      6921      6922      6923      6924      6925
      6926      6927      6928      6929      6930      6931      6932      6933
      6934      6935      6936      6937      6938      6939      6940      6941
! ... 14 like lines cut
cmsel,s,_FRICSUX
d,all,ux,0
nsel,all
/com,********* Frictionless Supports Y *********
CMBLOCK,_FRICSUY,NODE,      153
(8i10)
         5         6         7         8       765       766       767       768
       769       770       771       772       773       774       775       776
       777       778       779       780       781       782       783       784
       785       786       787       788       789      1440      1441      1442
      1443      1444      1445      1446      1447      1448      1449      1450
      1451      1452      1453      1454      1455      1456      1457      1458
      1459      1460      1461      1462      1974      1975      1977      1978
      1979      1982      1985      1988      7080      7083      7084      7087
      7088      7089      7092      7093      7094      7097      7098      7099
      7102      7103      7104      7107      7108      7109      7112      7113
      7114      7117      7118      7119      7122      7123      7124      7127
      7128      7129      7132      7133      7134      7137      7138      7139
      7141      7142      7145      7146      7147      7150      7151      7152
      7155      7156      7157      7160      7161      7162      7163      7164
      7166      7168      7169      7171      7174      7175      7176      7179
      7180      7181      7184      7185      7186      7187      7188      7190
      7193      7194      7198      9158      9159      9160      9161      9162
      9163      9164      9165      9166      9167      9168      9169      9170
      9171      9172      9173      9174      9176      9178      9179      9180
      9182
cmsel,s,_FRICSUY
d,all,uy,0
nsel,all
/com,********* Frictionless Supports Z *********
CMBLOCK,_FRICSUZ,NODE,      267
(8i10)
         2         4         6         8        10       686       687       688
       689       690       691       692       693       694       695       696
       697       698       699       700       701       702       703       704
       705       706       707       708       709       710       711       712
      1388      1389      1390      1391      1392      1393      1394      1395
      1396      1397      1398      1399      1400      1401      1402      1403
      1404      1405      1406      1407      1408      1409      1410      1411
      1412      1413      1533      1534      1549      1550      1551      1552
      1553      1554      1555      1556      1557      1558      1559      1560
      1561      1562      1563      1564      1565      1566      1567      1568
      1569      1570      1571      1572      1573      1574      1575      1576
      1577      1578      1954      1955      1956      1957      1969      1970
      1971      1973      1978      1981      1987      1989      1996      1998
      1999      6805      6806      6808      6809      6810      6811      6812
      6813      6814      6815      6816      6817      6818      6819      6820
      6821      6822      6823      6824      6825      6826      6827      6828
      6829      6830      6831      6832      6833      6834      6835      6836
      6837      6838      6839      6840      6841      6842      6843      6844
      6845      6846      6847      6848      6849      6850      6851      6852
      6853      6854      6855      6856      6857      6858      6859      6860
! ... 14 like lines cut
cmsel,s,_FRICSUZ
d,all,uz,0
nsel,all
/com,*********** Define Pressure Using Surface Effect Elements "Pressure" ***********
et,2,154
eblock,10,,,1744
(15i9)
     9392        2        2        2        0     1533     1509        2        2     9381     1953        2     1954
     9393        2        2        2        0     1533     1486     1509     1509     9255     9254     1509     9381
     9394        2        2        2        0     1533     1463     1486     1486     9186     9185     1486     9255
     9395        2        2        2        0     1533        4     1463     1463     1973     1972     1463     9186
     9396        2        2        2        0     1509     1487     1510     1510     9260     9261     1510     9380
     9397        2        2        2        0     1509     1486     1487     1487     9254     9253     1487     9260
     9398        2        2        2        0     1486     1464     1487     1487     9188     9189     1487     9253
     9399        2        2        2        0     1486     1463     1464     1464     9185     9184     1464     9188
     9400        2        2        2        0     1510     1488     1511     1511     9265     9266     1511     9389
     9401        2        2        2        0     1510     1487     1488     1488     9261     9259     1488     9265
     9402        2        2        2        0     1464     1488     1487     1487     9190     9259     1487     9189
     9403        2        2        2        0     1464     1465     1488     1488     9187     9192     1488     9190
     9404        2        2        2        0     1511     1489     1512     1512     9270     9271     1512     9398
     9405        2        2        2        0     1511     1488     1489     1489     9266     9264     1489     9270
     9406        2        2        2        0     1465     1489     1488     1488     9193     9264     1488     9192
     9407        2        2        2        0     1465     1466     1489     1489     9191     9195     1489     9193
     9408        2        2        2        0     1512     1490     1513     1513     9275     9276     1513     9407
     9409        2        2        2        0     1512     1489     1490     1490     9271     9269     1490     9275
     9410        2        2        2        0     1466     1490     1489     1489     9196     9269     1489     9195
     9411        2        2        2        0     1466     1467     1490     1490     9194     9198     1490     9196
! ... 1725 like lines cut
esel,s,type,,2
keyop,2,7,0                ! Use deformed area for application of load
esel,all
esel,all
/gst,on,on
fini
*get,_numnode,node,0,count
*get,_numelem,elem,0,count
*get, _MAXELEMNUM, elem, 0, NUM, MAX
*get, _MAXNODENUM, node, 0, NUM, MAX
*get, _MAXELEMTYPE, etyp, 0, NUM, MAX
*get, _MAXREALCONST, real, 0, NUM, MAX
/go
/wb,load,end               !  done creating loads
/com,--- Number of total nodes = %_numnode%
/com,--- Number of contact elements = 1744
/com,--- Number of spring elements = 0
/com,--- Number of bearing elements = 0
/com,--- Number of solid elements = 5519
/com,--- Number of condensed parts = 0
/com,--- Number of total elements = %_numelem%
*get,_wallbsol,active,,time,wall
/com,****************************************************************************
/com,*************************    SOLUTION       ********************************
/com,****************************************************************************
/solu
antype,0                   ! static analysis
_thickRatio=  0     ! Ratio of thick parts in the model
eqsl,sparse,,,,,1
cntr,print,1               ! print out contact info and also make no initial contact an error
dmpoption,emat,no             ! Don't combine emat file for DANSYS
dmpoption,esav,no             ! Don't combine esav file for DANSYS
nldiag,cont,iter           ! print out contact info each equilibrium iteration
rescontrol,,none                 ! Do not keep any restart files
/com,****************************************************
/com,******************* SOLVE FOR LS 1 OF 1 ****************
esel,s,type,,2
nsle
sf,all,pres,6.
nsel,all
esel,all
esel,all
/nopr
/gopr
nsub,1,1,1
time,1.
outres,erase
outres,all,none
outres,nsol,all,
outres,rsol,all
outres,eangl,all
outres,etmp,all
outres,veng,all
outres,strs,all,
outres,epel,all,
outres,eppl,all,
outres,cont,all,
! *********** WB SOLVE COMMAND ***********
! check interactive state
*get,ANSINTER_,active,,int
*if,ANSINTER_,ne,0,then
/eof
*endif
solve
/com *************** Write FE CONNECTORS ********* 
CEWRITE,file,ce,,INTE
/com,****************************************************
/com,*************** FINISHED SOLVE FOR LS 1 *************
*get,_wallasol,active,,time,wall
/nopr
*get,_numnode,node,0,count
*get,_numelem,elem,0,count
*get, _MAXELEMNUM, elem, 0, NUM, MAX
*get, _MAXNODENUM, node, 0, NUM, MAX,,,INTERNAL
*get, _MAXELEMTYPE, etyp, 0, NUM, MAX
*get, _MAXREALCONST, real, 0, NUM, MAX
/gopr
/post1
xmlo,ENCODING,ISO-8859-1
xmlo,parm
/xml,parm,xml
fini
/gopr
*get,_walldone,active,,time,wall
_preptime=(_wallbsol-_wallstrt)*3600
_solvtime=(_wallasol-_wallbsol)*3600
_posttime=(_walldone-_wallasol)*3600
_totaltim=(_walldone-_wallstrt)*3600
*get,_dlbratio,active,0,solu,dlbr
*get,_combtime,active,0,solu,comb
*get,_ssmode,active,0,solu,ssmm
*get,_ndofs,active,0,solu,ndof
/com,--- Total number of nodes = %_numnode%
/com,--- Total number of elements = %_numelem%
/com,--- Element load balance ratio = %_dlbratio%
/com,--- Time to combine distributed files = %_combtime%
/com,--- Sparse memory mode = %_ssmode%
/com,--- Number of DOF = %_ndofs%
/wb,file,end               ! done with WB generated input
