/batch
/config,noeldb,1     ! force off writing results to database
*get,_wallstrt,active,,time,wall
! ANSYS input file written by Workbench version 2021 R2
! File used for geometry attach: C:\Users\luizg\OneDrive\OneDrive_SYNC\UnB\2021.1\FGA0039-mecanica_de_estruturas_aeroespaciais\Ansys\exercicio_individual_6_files\dp0\SYS\DM\SYS.agdb
/title,exercicio_individual_6--Static Structural (A5)
! ****** Begin Custom Load Command Snippet ******
/COM, ACT Extensions:
/COM,     LSDYNA, 2021.1
/COM,     5f463412-bd3e-484b-87e7-cbc0a665e474, wbex
/COM,
! ****** End   Custom Load Command Snippet ******
*DIM,_wb_ProjectScratch_dir,string,248
_wb_ProjectScratch_dir(1) = 'C:\Users\luizg\OneDrive\OneDrive_SYNC\UnB\2021.1\FGA0039-mecanica_de_estruturas_aeroespaciais\Ansys\_ProjectScratch\ScrFCC2\'
*DIM,_wb_SolverFiles_dir,string,248
_wb_SolverFiles_dir(1) = 'C:\Users\luizg\OneDrive\OneDrive_SYNC\UnB\2021.1\FGA0039-mecanica_de_estruturas_aeroespaciais\Ansys\exercicio_individual_6_files\dp0\SYS\MECH\'
*DIM,_wb_userfiles_dir,string,248
_wb_userfiles_dir(1) = 'C:\Users\luizg\OneDrive\OneDrive_SYNC\UnB\2021.1\FGA0039-mecanica_de_estruturas_aeroespaciais\Ansys\exercicio_individual_6_files\user_files\'
/com,--- Data in consistent NMM units. See Solving Units in the help system for more information.
/units,MPA
/nopr
/wb,file,start              !  signify a WB generated input file
/prep7
! Turn off shape checking because checks already performed inside WB mesher.
! See help system for more information.
SHPP,OFF,,NOWARN
/nolist
etcon,set             ! allow ANSYS to choose best KEYOP's for 180x elements, resets any applicable keyopt to MAPDL defaults
/com,*********** Nodes for the whole assembly ***********
nblock,3,,70
(1i9,3e20.9e3)
        1     4.500000000E+02     0.000000000E+00     0.000000000E+00
        2     0.000000000E+00     0.000000000E+00     0.000000000E+00
        3     4.285714286E+02     0.000000000E+00     0.000000000E+00
        4     4.071428571E+02     0.000000000E+00     0.000000000E+00
        5     3.857142857E+02     0.000000000E+00     0.000000000E+00
        6     3.642857143E+02     0.000000000E+00     0.000000000E+00
        7     3.428571429E+02     0.000000000E+00     0.000000000E+00
        8     3.214285714E+02     0.000000000E+00     0.000000000E+00
        9     3.000000000E+02     0.000000000E+00     0.000000000E+00
       10     2.785714286E+02     0.000000000E+00     0.000000000E+00
       11     2.571428571E+02     0.000000000E+00     0.000000000E+00
       12     2.357142857E+02     0.000000000E+00     0.000000000E+00
       13     2.142857143E+02     0.000000000E+00     0.000000000E+00
       14     1.928571429E+02     0.000000000E+00     0.000000000E+00
       15     1.714285714E+02     0.000000000E+00     0.000000000E+00
       16     1.500000000E+02     0.000000000E+00     0.000000000E+00
       17     1.285714286E+02     0.000000000E+00     0.000000000E+00
       18     1.071428571E+02     0.000000000E+00     0.000000000E+00
       19     8.571428571E+01     0.000000000E+00     0.000000000E+00
       20     6.428571429E+01     0.000000000E+00     0.000000000E+00
! ... 45 like lines cut
/wb,elem,start            !  set before creation of elements
/com,*********** Elements for Body 1 "Line Body" ***********
et,1,189
eblock,19,solid,,21
(19i9)
        1        1        1        1        0        0        0        0        4        0        1        1        3       23       44
        1        1        1        1        0        0        0        0        4        0        2        3        4       25       45
        1        1        1        1        0        0        0        0        4        0        3        4        5       26       46
        1        1        1        1        0        0        0        0        4        0        4        5        6       27       47
        1        1        1        1        0        0        0        0        4        0        5        6        7       28       48
        1        1        1        1        0        0        0        0        4        0        6        7        8       29       49
        1        1        1        1        0        0        0        0        4        0        7        8        9       30       50
        1        1        1        1        0        0        0        0        4        0        8        9       10       31       51
        1        1        1        1        0        0        0        0        4        0        9       10       11       32       52
        1        1        1        1        0        0        0        0        4        0       10       11       12       33       53
        1        1        1        1        0        0        0        0        4        0       11       12       13       34       54
        1        1        1        1        0        0        0        0        4        0       12       13       14       35       55
        1        1        1        1        0        0        0        0        4        0       13       14       15       36       56
        1        1        1        1        0        0        0        0        4        0       14       15       16       37       57
        1        1        1        1        0        0        0        0        4        0       15       16       17       38       58
        1        1        1        1        0        0        0        0        4        0       16       17       18       39       59
        1        1        1        1        0        0        0        0        4        0       17       18       19       40       60
        1        1        1        1        0        0        0        0        4        0       18       19       20       41       61
        1        1        1        1        0        0        0        0        4        0       19       20       21       42       62
        1        1        1        1        0        0        0        0        4        0       20       21       22       43       63
        1        1        1        1        0        0        0        0        4        0       21       22        2       24       64
-1
!Material Id = {656001C5-97B9-4E26-92A0-A2A3B6934F8C}
/wb,elem,end               !  done creating elements
/com,*********** Send User Defined Coordinate System(s) ***********
csys,0
toffst,273.15,  ! Temperature offset from absolute zero
/com,*********** Set Reference Temperature ***********
tref,22.
/wb,mat,start              !  starting to send materials
/com,*********** Send Materials ***********
Temperature = 'TEMP' ! Temperature
MP,DENS,1,7.85e-09,	! tonne mm^-3
MP,ALPX,1,1.2e-05,	! C^-1
MP,C,1,434000000,	! mm^2 s^-2 C^-1
MP,KXX,1,60.5,	! tonne mm s^-3 C^-1
MP,RSVX,1,0.00017,	! ohm mm
MP,EX,1,200000,	! tonne s^-2 mm^-1
MP,NUXY,1,0.3,
MP,MURX,1,10000,
MP,UVID,1,d7aae438-e949-44f9-b82d-91bb48b6b981
MP,UMID,1,59002a79-71c2-428e-906b-55d7dbee100e

/wb,mat,end                !  done sending materials
/com,*********** Send Beam Properties ***********
SECTYPE,1,BEAM,Z
SECDATA,10.,10.,18.,5.,4.,3.
secoffset,cent

!************************* Model Summary ********************
!Line Body,	Structural Steel,	matid,	1
!************************* End Model Summary ********************
! get the diagonal of the bounding box. Needed later for other things
*get,_xmin,node,,mnloc,x
*get,_ymin,node,,mnloc,y
*get,_zmin,node,,mnloc,z
*get,_xmax,node,,mxloc,x
*get,_ymax,node,,mxloc,y
*get,_zmax,node,,mxloc,z
_ASMDIAG=(_xmax-_xmin)*(_xmax-_xmin)+(_ymax-_ymin)*(_ymax-_ymin)+(_zmax-_zmin)*(_zmax-_zmin)
_ASMDIAG=SQRT(_ASMDIAG)
/wb,contact,start          !  starting to send contact
/wb,contact,end            !  done creating contacts
/golist
/wb,load,start             !  starting to send loads
CMBLOCK,_CM29_FIXEDSU,NODE,        1
(8i10)
         2
/com,*********** Fixed Supports ***********
CMBLOCK,_FIXEDSU,NODE,        1
(8i10)
         2
cmsel,s,_FIXEDSU
d,all,all
nsel,all
/com,*********** Define Vertex Force Using Follower Elements ***********
et,2,201
keyo,2,1,1           ! Keep the direction constant
keyo,2,2,1           ! Apply Forces only, not moment
mat,2
real,2
type,2
en,22,1
r,2
rmod,2,1,1.0,              ! FX
mat,3
real,3
type,2
en,23,1
r,3
rmod,3,2,1.0,              ! FY
mat,4
real,4
type,2
en,24,1
r,4
rmod,4,3,1.0,              ! FZ
/gst,on,on
fini
*get,_numnode,node,0,count
*get,_numelem,elem,0,count
*get, _MAXELEMNUM, elem, 0, NUM, MAX
*get, _MAXNODENUM, node, 0, NUM, MAX
*get, _MAXELEMTYPE, etyp, 0, NUM, MAX
*get, _MAXREALCONST, real, 0, NUM, MAX
/go
/wb,load,end               !  done creating loads
/com,--- Number of total nodes = %_numnode%
/com,--- Number of contact elements = 0
/com,--- Number of spring elements = 0
/com,--- Number of bearing elements = 0
/com,--- Number of solid elements = 21
/com,--- Number of condensed parts = 0
/com,--- Number of total elements = %_numelem%
*get,_wallbsol,active,,time,wall
/com,****************************************************************************
/com,*************************    SOLUTION       ********************************
/com,****************************************************************************
/solu
antype,0                   ! static analysis
_thickRatio=  0     ! Ratio of thick parts in the model
eqsl,sparse,,,,,1
cntr,print,1               ! print out contact info and also make no initial contact an error
nldiag,cont,iter           ! print out contact info each equilibrium iteration
rescontrol,linear,last           ! Turn on restart files due to future eigen analysis intent
/com,****************************************************
/com,******************* SOLVE FOR LS 1 OF 1 ****************
esel,s,real,,2
sfe,all,1,pres,1,-1.
esel,s,real,,3
sfe,all,1,pres,1,0.
esel,s,real,,4
sfe,all,1,pres,1,0.
esel,all
/nopr
/gopr
nsub,1,1,1
time,1.
outres,erase
outres,all,none
outres,nsol,all,
outres,rsol,all
outres,eangl,all
outres,etmp,all
outres,veng,all
outres,strs,all,
outres,epel,all,
outres,eppl,all,
outres,cont,all,
/nopr
esel,s,type,,1
cm,_elmisc,elem
esel,all
/gopr
outres,misc,all,_elmisc
! *********** WB SOLVE COMMAND ***********
! check interactive state
*get,ANSINTER_,active,,int
*if,ANSINTER_,ne,0,then
/eof
*endif
solve
/com *************** Write FE CONNECTORS ********* 
CEWRITE,file,ce,,INTE
/com,****************************************************
/com,*************** FINISHED SOLVE FOR LS 1 *************
*get,_wallasol,active,,time,wall
/nopr
*get,_numnode,node,0,count
*get,_numelem,elem,0,count
*get, _MAXELEMNUM, elem, 0, NUM, MAX
*get, _MAXNODENUM, node, 0, NUM, MAX,,,INTERNAL
*get, _MAXELEMTYPE, etyp, 0, NUM, MAX
*get, _MAXREALCONST, real, 0, NUM, MAX
/gopr
/post1
xmlo,ENCODING,ISO-8859-1
xmlo,parm
/xml,parm,xml
fini
/gopr
*get,_walldone,active,,time,wall
_preptime=(_wallbsol-_wallstrt)*3600
_solvtime=(_wallasol-_wallbsol)*3600
_posttime=(_walldone-_wallasol)*3600
_totaltim=(_walldone-_wallstrt)*3600
*get,_dlbratio,active,0,solu,dlbr
*get,_combtime,active,0,solu,comb
*get,_ssmode,active,0,solu,ssmm
*get,_ndofs,active,0,solu,ndof
/com,--- Total number of nodes = %_numnode%
/com,--- Total number of elements = %_numelem%
/com,--- Element load balance ratio = %_dlbratio%
/com,--- Time to combine distributed files = %_combtime%
/com,--- Sparse memory mode = %_ssmode%
/com,--- Number of DOF = %_ndofs%
/wb,file,end               ! done with WB generated input
